 &coupler_nml
        months = 6,
        days   = 0,
        current_date = 1,1,1,0,0,0,
        calendar = 'noleap',
        dt_cpld = 1800,
        dt_atmos = 1800,
        do_atmos = .false.,
        do_land = .false.,   
        do_ocean = .true.,
        atmos_npes = 0,
        ocean_npes = 0,
        use_lag_fluxes=.true.
        check_stocks=0
/

 &data_override_nml

/

 &diag_integral_nml
        file_name = 'diag_integral.out'
	    time_units = 'days'
	    output_interval = -1.0
/

 &diag_manager_nml
	max_output_fields=700
	max_input_fields=700
	max_axes=300
	max_num_axis_sets=40
	max_files = 1000
	issue_oor_warnings=.false.
/

